Pcp_File_Version=4
*** BLOCK I: ATMOSPHERIC INFORMATION  **********************************
MaxAL (MaxAL = number of atmospheric data-records)
56
lDailyVar lSinusVar lLai lBCCycles lInterc 
f f f f f
hCritS (max. allowed pressure head at the soil surface)
3
 tAtm     Prec  rSoil  rRoot  hCritA  rB  hB  ht  tTop  tBot  Ampl  cTop  cBot
 89.0 0.000000  0.001      0   50000   0   0   0     0     0     0   0.0   0.0
 89.5 0.081306  0.001      0   50000   0   0   0     0     0     0   0.0   0.0
 90.0 0.000000  0.001      0   50000   0   0   0     0     0     0   0.0   0.0
 90.5 0.013551  0.001      0   50000   0   0   0     0     0     0   0.0   0.0
 96.5 0.000000  0.001      0   50000   0   0   0     0     0     0   0.0   0.0
 97.0 0.013551  0.001      0   50000   0   0   0     0     0     0   0.0   0.0
 97.5 0.582688  0.001      0   50000   0   0   0     0     0     0   0.0   0.0
 98.0 0.663994  0.001      0   50000   0   0   0     0     0     0   0.0   0.0
 98.5 0.474282  0.001      0   50000   0   0   0     0     0     0   0.0   0.0
 99.0 0.040653  0.001      0   50000   0   0   0     0     0     0   0.0   0.0
 99.5 0.013551  0.001      0   50000   0   0   0     0     0     0   0.0   0.0
101.0 0.040653  0.001      0   50000   0   0   0     0     0     0   0.0   0.0
101.5 0.054204  0.001      0   50000   0   0   0     0     0     0   0.0   0.0
102.0 0.094856  0.001      0   50000   0   0   0     0     0     0   0.0   0.0
103.0 0.081306  0.001      0   50000   0   0   0     0     0     0   0.0   0.0
103.5 0.067754  0.001      0   50000   0   0   0     0     0     0   0.0   0.0
104.0 0.027102  0.001      0   50000   0   0   0     0     0     0   0.0   0.0
158.0 0.000000  0.001      0   50000   0   0   0     0     0     0   0.0   0.0
158.5 0.040653  0.001      0   50000   0   0   0     0     0     0   0.0   0.0
159.0 0.149060  0.001      0   50000   0   0   0     0     0     0   0.0   0.0
185.5 0.000000  0.001      0   50000   0   0   0     0     0     0   0.0   0.0
186.0 0.582688  0.001      0   50000   0   0   0     0     0     0   0.0   0.0
186.5 0.907911  0.001      0   50000   0   0   0     0     0     0   0.0   0.0
187.0 0.243916  0.001      0   50000   0   0   0     0     0     0   0.0   0.0
187.5 0.013551  0.001      0   50000   0   0   0     0     0     0   0.0   0.0
188.0 0.027102  0.001      0   50000   0   0   0     0     0     0   0.0   0.0
188.5 0.000000  0.001      0   50000   0   0   0     0     0     0   0.0   0.0
189.0 0.067754  0.001      0   50000   0   0   0     0     0     0   0.0   0.0
189.5 0.013551  0.001      0   50000   0   0   0     0     0     0   0.0   0.0
190.0 0.000000  0.001      0   50000   0   0   0     0     0     0   0.0   0.0
190.5 0.027102  0.001      0   50000   0   0   0     0     0     0   0.0   0.0
195.5 0.000000  0.001      0   50000   0   0   0     0     0     0   0.0   0.0
196.0 0.013551  0.001      0   50000   0   0   0     0     0     0   0.0   0.0
375.0 0.000000  0.001      0   50000   0   0   0     0     0     0   0.0   0.0
375.5 0.826605  0.001      0   50000   0   0   0     0     0     0   0.0   0.0
376.0 0.054204  0.001      0   50000   0   0   0     0     0     0   0.0   0.0
376.5 0.067754  0.001      0   50000   0   0   0     0     0     0   0.0   0.0
377.0 0.040653  0.001      0   50000   0   0   0     0     0     0   0.0   0.0
381.5 0.000000  0.001      0   50000   0   0   0     0     0     0   0.0   0.0
382.0 0.108407  0.001      0   50000   0   0   0     0     0     0   0.0   0.0
382.5 0.000000  0.001      0   50000   0   0   0     0     0     0   0.0   0.0
383.0 0.067754  0.001      0   50000   0   0   0     0     0     0   0.0   0.0
383.5 0.054204  0.001      0   50000   0   0   0     0     0     0   0.0   0.0
401.5 0.000000  0.001      0   50000   0   0   0     0     0     0   0.0   0.0
402.0 0.108407  0.001      0   50000   0   0   0     0     0     0   0.0   0.0
727.5 0.000000  0.001      0   50000   0   0   0     0     0     0   0.0   0.0
728.0 0.013551  0.001      0   50000   0   0   0     0     0     0   0.0   0.0
728.5 0.040653  0.001      0   50000   0   0   0     0     0     0   0.0   0.0
729.0 0.054204  0.001      0   50000   0   0   0     0     0     0   0.0   0.0
734.0 0.000000  0.001      0   50000   0   0   0     0     0     0   0.0   0.0
735.0 0.013551  0.001      0   50000   0   0   0     0     0     0   0.0   0.0
739.5 0.000000  0.001      0   50000   0   0   0     0     0     0   0.0   0.0
740.0 0.027102  0.001      0   50000   0   0   0     0     0     0   0.0   0.0
740.5 0.054204  0.001      0   50000   0   0   0     0     0     0   0.0   0.0
741.5 0.013551  0.001      0   50000   0   0   0     0     0     0   0.0   0.0
744.0 0.000000  0.001      0   50000   0   0   0     0     0     0   0.0   0.0
end*** END OF INPUT FILE ATMOSPH.IN **********************************
