Pcp_File_Version=4
0
161 0 0 0        x  h  Mat  Lay  Beta  Axz  Bxz  Dxz  Temp Conc SConc
1     0.0  0    1    1     0  1.0  1.0  1.0  20.0           
2    -0.5  0    1    1     0  1.0  1.0  1.0  20.0           
3    -1.0  0    1    1     0  1.0  1.0  1.0  20.0           
4    -1.5  0    1    1     0  1.0  1.0  1.0  20.0           
5    -2.0  0    1    1     0  1.0  1.0  1.0  20.0           
6    -2.5  0    1    1     0  1.0  1.0  1.0  20.0           
7    -3.0  0    1    1     0  1.0  1.0  1.0  20.0           
8    -3.5  0    1    1     0  1.0  1.0  1.0  20.0           
9    -4.0  0    1    1     0  1.0  1.0  1.0  20.0           
10   -4.5  0    1    1     0  1.0  1.0  1.0  20.0           
11   -5.0  0    1    1     0  1.0  1.0  1.0  20.0           
12   -5.5  0    1    1     0  1.0  1.0  1.0  20.0           
13   -6.0  0    1    1     0  1.0  1.0  1.0  20.0           
14   -6.5  0    1    1     0  1.0  1.0  1.0  20.0           
15   -7.0  0    1    1     0  1.0  1.0  1.0  20.0           
16   -7.5  0    1    1     0  1.0  1.0  1.0  20.0           
17   -8.0  0    1    1     0  1.0  1.0  1.0  20.0           
18   -8.5  0    1    1     0  1.0  1.0  1.0  20.0           
19   -9.0  0    1    1     0  1.0  1.0  1.0  20.0           
20   -9.5  0    1    1     0  1.0  1.0  1.0  20.0           
21  -10.0  0    1    1     0  1.0  1.0  1.0  20.0           
22  -10.5  0    1    1     0  1.0  1.0  1.0  20.0           
23  -11.0  0    1    1     0  1.0  1.0  1.0  20.0           
24  -11.5  0    1    1     0  1.0  1.0  1.0  20.0           
25  -12.0  0    1    1     0  1.0  1.0  1.0  20.0           
26  -12.5  0    1    1     0  1.0  1.0  1.0  20.0           
27  -13.0  0    1    1     0  1.0  1.0  1.0  20.0           
28  -13.5  0    1    1     0  1.0  1.0  1.0  20.0           
29  -14.0  0    1    1     0  1.0  1.0  1.0  20.0           
30  -14.5  0    1    1     0  1.0  1.0  1.0  20.0           
31  -15.0  0    1    1     0  1.0  1.0  1.0  20.0           
32  -15.5  0    1    1     0  1.0  1.0  1.0  20.0           
33  -16.0  0    1    1     0  1.0  1.0  1.0  20.0           
34  -16.5  0    1    1     0  1.0  1.0  1.0  20.0           
35  -17.0  0    1    1     0  1.0  1.0  1.0  20.0           
36  -17.5  0    1    1     0  1.0  1.0  1.0  20.0           
37  -18.0  0    1    1     0  1.0  1.0  1.0  20.0           
38  -18.5  0    1    1     0  1.0  1.0  1.0  20.0           
39  -19.0  0    1    1     0  1.0  1.0  1.0  20.0           
40  -19.5  0    1    1     0  1.0  1.0  1.0  20.0           
41  -20.0  0    1    1     0  1.0  1.0  1.0  20.0           
42  -20.5  0    1    1     0  1.0  1.0  1.0  20.0           
43  -21.0  0    1    1     0  1.0  1.0  1.0  20.0           
44  -21.5  0    1    1     0  1.0  1.0  1.0  20.0           
45  -22.0  0    1    1     0  1.0  1.0  1.0  20.0           
46  -22.5  0    1    1     0  1.0  1.0  1.0  20.0           
47  -23.0  0    1    1     0  1.0  1.0  1.0  20.0           
48  -23.5  0    1    1     0  1.0  1.0  1.0  20.0           
49  -24.0  0    1    1     0  1.0  1.0  1.0  20.0           
50  -24.5  0    1    1     0  1.0  1.0  1.0  20.0           
51  -25.0  0    1    1     0  1.0  1.0  1.0  20.0           
52  -25.5  0    1    1     0  1.0  1.0  1.0  20.0           
53  -26.0  0    1    1     0  1.0  1.0  1.0  20.0           
54  -26.5  0    1    1     0  1.0  1.0  1.0  20.0           
55  -27.0  0    1    1     0  1.0  1.0  1.0  20.0           
56  -27.5  0    1    1     0  1.0  1.0  1.0  20.0           
57  -28.0  0    1    1     0  1.0  1.0  1.0  20.0           
58  -28.5  0    1    1     0  1.0  1.0  1.0  20.0           
59  -29.0  0    1    1     0  1.0  1.0  1.0  20.0           
60  -29.5  0    1    1     0  1.0  1.0  1.0  20.0           
61  -30.0  0    1    1     0  1.0  1.0  1.0  20.0           
62  -30.5  0    1    1     0  1.0  1.0  1.0  20.0           
63  -31.0  0    1    1     0  1.0  1.0  1.0  20.0           
64  -31.5  0    1    1     0  1.0  1.0  1.0  20.0           
65  -32.0  0    1    1     0  1.0  1.0  1.0  20.0           
66  -32.5  0    1    1     0  1.0  1.0  1.0  20.0           
67  -33.0  0    1    1     0  1.0  1.0  1.0  20.0           
68  -33.5  0    1    1     0  1.0  1.0  1.0  20.0           
69  -34.0  0    1    1     0  1.0  1.0  1.0  20.0           
70  -34.5  0    1    1     0  1.0  1.0  1.0  20.0           
71  -35.0  0    1    1     0  1.0  1.0  1.0  20.0           
72  -35.5  0    1    1     0  1.0  1.0  1.0  20.0           
73  -36.0  0    1    1     0  1.0  1.0  1.0  20.0           
74  -36.5  0    1    1     0  1.0  1.0  1.0  20.0           
75  -37.0  0    1    1     0  1.0  1.0  1.0  20.0           
76  -37.5  0    1    1     0  1.0  1.0  1.0  20.0           
77  -38.0  0    1    1     0  1.0  1.0  1.0  20.0           
78  -38.5  0    1    1     0  1.0  1.0  1.0  20.0           
79  -39.0  0    1    1     0  1.0  1.0  1.0  20.0           
80  -39.5  0    1    1     0  1.0  1.0  1.0  20.0           
81  -40.0  0    1    1     0  1.0  1.0  1.0  20.0           
82  -40.5  0    1    1     0  1.0  1.0  1.0  20.0           
83  -41.0  0    1    1     0  1.0  1.0  1.0  20.0           
84  -41.5  0    1    1     0  1.0  1.0  1.0  20.0           
85  -42.0  0    1    1     0  1.0  1.0  1.0  20.0           
86  -42.5  0    1    1     0  1.0  1.0  1.0  20.0           
87  -43.0  0    1    1     0  1.0  1.0  1.0  20.0           
88  -43.5  0    1    1     0  1.0  1.0  1.0  20.0           
89  -44.0  0    1    1     0  1.0  1.0  1.0  20.0           
90  -44.5  0    1    1     0  1.0  1.0  1.0  20.0           
91  -45.0  0    1    1     0  1.0  1.0  1.0  20.0           
92  -45.5  0    1    1     0  1.0  1.0  1.0  20.0           
93  -46.0  0    1    1     0  1.0  1.0  1.0  20.0           
94  -46.5  0    1    1     0  1.0  1.0  1.0  20.0           
95  -47.0  0    1    1     0  1.0  1.0  1.0  20.0           
96  -47.5  0    1    1     0  1.0  1.0  1.0  20.0           
97  -48.0  0    1    1     0  1.0  1.0  1.0  20.0           
98  -48.5  0    1    1     0  1.0  1.0  1.0  20.0           
99  -49.0  0    1    1     0  1.0  1.0  1.0  20.0           
100 -49.5  0    1    1     0  1.0  1.0  1.0  20.0           
101 -50.0  0    1    1     0  1.0  1.0  1.0  20.0           
102 -50.5  0    1    1     0  1.0  1.0  1.0  20.0           
103 -51.0  0    1    1     0  1.0  1.0  1.0  20.0           
104 -51.5  0    1    1     0  1.0  1.0  1.0  20.0           
105 -52.0  0    1    1     0  1.0  1.0  1.0  20.0           
106 -52.5  0    1    1     0  1.0  1.0  1.0  20.0           
107 -53.0  0    1    1     0  1.0  1.0  1.0  20.0           
108 -53.5  0    1    1     0  1.0  1.0  1.0  20.0           
109 -54.0  0    1    1     0  1.0  1.0  1.0  20.0           
110 -54.5  0    1    1     0  1.0  1.0  1.0  20.0           
111 -55.0  0    1    1     0  1.0  1.0  1.0  20.0           
112 -55.5  0    1    1     0  1.0  1.0  1.0  20.0           
113 -56.0  0    1    1     0  1.0  1.0  1.0  20.0           
114 -56.5  0    1    1     0  1.0  1.0  1.0  20.0           
115 -57.0  0    1    1     0  1.0  1.0  1.0  20.0           
116 -57.5  0    1    1     0  1.0  1.0  1.0  20.0           
117 -58.0  0    1    1     0  1.0  1.0  1.0  20.0           
118 -58.5  0    1    1     0  1.0  1.0  1.0  20.0           
119 -59.0  0    1    1     0  1.0  1.0  1.0  20.0           
120 -59.5  0    1    1     0  1.0  1.0  1.0  20.0           
121 -60.0  0    1    1     0  1.0  1.0  1.0  20.0           
122 -60.5  0    1    1     0  1.0  1.0  1.0  20.0           
123 -61.0  0    1    1     0  1.0  1.0  1.0  20.0           
124 -61.5  0    1    1     0  1.0  1.0  1.0  20.0           
125 -62.0  0    1    1     0  1.0  1.0  1.0  20.0           
126 -62.5  0    1    1     0  1.0  1.0  1.0  20.0           
127 -63.0  0    1    1     0  1.0  1.0  1.0  20.0           
128 -63.5  0    1    1     0  1.0  1.0  1.0  20.0           
129 -64.0  0    1    1     0  1.0  1.0  1.0  20.0           
130 -64.5  0    1    1     0  1.0  1.0  1.0  20.0           
131 -65.0  0    1    1     0  1.0  1.0  1.0  20.0           
132 -65.5  0    1    1     0  1.0  1.0  1.0  20.0           
133 -66.0  0    1    1     0  1.0  1.0  1.0  20.0           
134 -66.5  0    1    1     0  1.0  1.0  1.0  20.0           
135 -67.0  0    1    1     0  1.0  1.0  1.0  20.0           
136 -67.5  0    1    1     0  1.0  1.0  1.0  20.0           
137 -68.0  0    1    1     0  1.0  1.0  1.0  20.0           
138 -68.5  0    1    1     0  1.0  1.0  1.0  20.0           
139 -69.0  0    1    1     0  1.0  1.0  1.0  20.0           
140 -69.5  0    1    1     0  1.0  1.0  1.0  20.0           
141 -70.0  0    1    1     0  1.0  1.0  1.0  20.0           
142 -70.5  0    1    1     0  1.0  1.0  1.0  20.0           
143 -71.0  0    1    1     0  1.0  1.0  1.0  20.0           
144 -71.5  0    1    1     0  1.0  1.0  1.0  20.0           
145 -72.0  0    1    1     0  1.0  1.0  1.0  20.0           
146 -72.5  0    1    1     0  1.0  1.0  1.0  20.0           
147 -73.0  0    1    1     0  1.0  1.0  1.0  20.0           
148 -73.5  0    1    1     0  1.0  1.0  1.0  20.0           
149 -74.0  0    1    1     0  1.0  1.0  1.0  20.0           
150 -74.5  0    1    1     0  1.0  1.0  1.0  20.0           
151 -75.0  0    1    1     0  1.0  1.0  1.0  20.0           
152 -75.5  0    1    1     0  1.0  1.0  1.0  20.0           
153 -76.0  0    1    1     0  1.0  1.0  1.0  20.0           
154 -76.5  0    1    1     0  1.0  1.0  1.0  20.0           
155 -77.0  0    1    1     0  1.0  1.0  1.0  20.0           
156 -77.5  0    1    1     0  1.0  1.0  1.0  20.0           
157 -78.0  0    1    1     0  1.0  1.0  1.0  20.0           
158 -78.5  0    1    1     0  1.0  1.0  1.0  20.0           
159 -79.0  0    1    1     0  1.0  1.0  1.0  20.0           
160 -79.5  0    1    1     0  1.0  1.0  1.0  20.0           
161 -80.0  0    1    1     0  1.0  1.0  1.0  20.0           
5
   5   25   45   75   105