Pcp_File_Version=4
*** BLOCK A: BASIC INFORMATION ***************************************************
Created with Pydrus version 0.2.0
Model of Soil Moisture at SES Site
LUnit TUnit MUnit
cm
hours
mmol
lWat  lChem  lTemp  lSink  lRoot  lShort  lWDep  lScreen  AtmInf  lEquil  lInverse  
t  f  f  f  f  f  f  f  t  t  f
lSnow  lHP1  lMeteo  lVapor  lActRSU  lFlux  lIrrig  
f  f  f  f  f  t  f
NMat NLay CosAlfa 
1 1 1
*** BLOCK B: WATER FLOW INFORMATION **********************************************
MaxIt  TolTh  TolH   (maximum number of iterations and tolerances)
10   0.001   1
TopInf  WLayer  KodTop  lInitW  
t f -1 t 
BotInf  qGWLF  FreeD  SeepF  KodBot  qDrain  hSeep  
f f t f -1 f 0 
ha  hb  
1e-06 10000.0 
iModel  iHyst  
0 0 
    thr  ths  Alfa       n       Ks   l
0.03398  0.7  0.07 2.04322 6.131759 0.5
*** BLOCK C: TIME INFORMATION ****************************************************
dt dtMin dtMax dMul dMul2 ItMin ItMax MPL 
1e-06 1e-09 0.05 1.3 0.7 3 7 498 
tInit tMax 
0 744.0 
lPrint nPrintSteps tPrintInterval lEnter 
f 1 1 f 
TPrint(1),TPrint(2),...,TPrint(MPL)
0.001 1.5 3.0 4.5 6.0 7.5
9.0 10.5 12.0 13.5 15.0 16.5
18.0 19.5 21.0 22.5 24.0 25.5
27.0 28.5 30.0 31.5 33.0 34.5
36.0 37.5 39.0 40.5 42.0 43.5
45.0 46.5 48.0 49.5 51.0 52.5
54.0 55.5 57.0 58.5 60.0 61.5
63.0 64.5 66.0 67.5 69.0 70.5
72.0 73.5 75.0 76.5 78.0 79.5
81.0 82.5 84.0 85.5 87.0 88.5
90.0 91.5 93.0 94.5 96.0 97.5
99.0 100.5 102.0 103.5 105.0 106.5
108.0 109.5 111.0 112.5 114.0 115.5
117.0 118.5 120.0 121.5 123.0 124.5
126.0 127.5 129.0 130.5 132.0 133.5
135.0 136.5 138.0 139.5 141.0 142.5
144.0 145.5 147.0 148.5 150.0 151.5
153.0 154.5 156.0 157.5 159.0 160.5
162.0 163.5 165.0 166.5 168.0 169.5
171.0 172.5 174.0 175.5 177.0 178.5
180.0 181.5 183.0 184.5 186.0 187.5
189.0 190.5 192.0 193.5 195.0 196.5
198.0 199.5 201.0 202.5 204.0 205.5
207.0 208.5 210.0 211.5 213.0 214.5
216.0 217.5 219.0 220.5 222.0 223.5
225.0 226.5 228.0 229.5 231.0 232.5
234.0 235.5 237.0 238.5 240.0 241.5
243.0 244.5 246.0 247.5 249.0 250.5
252.0 253.5 255.0 256.5 258.0 259.5
261.0 262.5 264.0 265.5 267.0 268.5
270.0 271.5 273.0 274.5 276.0 277.5
279.0 280.5 282.0 283.5 285.0 286.5
288.0 289.5 291.0 292.5 294.0 295.5
297.0 298.5 300.0 301.5 303.0 304.5
306.0 307.5 309.0 310.5 312.0 313.5
315.0 316.5 318.0 319.5 321.0 322.5
324.0 325.5 327.0 328.5 330.0 331.5
333.0 334.5 336.0 337.5 339.0 340.5
342.0 343.5 345.0 346.5 348.0 349.5
351.0 352.5 354.0 355.5 357.0 358.5
360.0 361.5 363.0 364.5 366.0 367.5
369.0 370.5 372.0 373.5 375.0 376.5
378.0 379.5 381.0 382.5 384.0 385.5
387.0 388.5 390.0 391.5 393.0 394.5
396.0 397.5 399.0 400.5 402.0 403.5
405.0 406.5 408.0 409.5 411.0 412.5
414.0 415.5 417.0 418.5 420.0 421.5
423.0 424.5 426.0 427.5 429.0 430.5
432.0 433.5 435.0 436.5 438.0 439.5
441.0 442.5 444.0 445.5 447.0 448.5
450.0 451.5 453.0 454.5 456.0 457.5
459.0 460.5 462.0 463.5 465.0 466.5
468.0 469.5 471.0 472.5 474.0 475.5
477.0 478.5 480.0 481.5 483.0 484.5
486.0 487.5 489.0 490.5 492.0 493.5
495.0 496.5 498.0 499.5 501.0 502.5
504.0 505.5 507.0 508.5 510.0 511.5
513.0 514.5 516.0 517.5 519.0 520.5
522.0 523.5 525.0 526.5 528.0 529.5
531.0 532.5 534.0 535.5 537.0 538.5
540.0 541.5 543.0 544.5 546.0 547.5
549.0 550.5 552.0 553.5 555.0 556.5
558.0 559.5 561.0 562.5 564.0 565.5
567.0 568.5 570.0 571.5 573.0 574.5
576.0 577.5 579.0 580.5 582.0 583.5
585.0 586.5 588.0 589.5 591.0 592.5
594.0 595.5 597.0 598.5 600.0 601.5
603.0 604.5 606.0 607.5 609.0 610.5
612.0 613.5 615.0 616.5 618.0 619.5
621.0 622.5 624.0 625.5 627.0 628.5
630.0 631.5 633.0 634.5 636.0 637.5
639.0 640.5 642.0 643.5 645.0 646.5
648.0 649.5 651.0 652.5 654.0 655.5
657.0 658.5 660.0 661.5 663.0 664.5
666.0 667.5 669.0 670.5 672.0 673.5
675.0 676.5 678.0 679.5 681.0 682.5
684.0 685.5 687.0 688.5 690.0 691.5
693.0 694.5 696.0 697.5 699.0 700.5
702.0 703.5 705.0 706.5 708.0 709.5
711.0 712.5 714.0 715.5 717.0 718.5
720.0 721.5 723.0 724.5 726.0 727.5
729.0 730.5 732.0 733.5 735.0 736.5
738.0 739.5 741.0 742.5 743.5 744.0

*** BLOCK END OF INPUT FILE SELECTOR.IN ******************************************
